-------------------------------------------------------
          Amber 22 SANDER                              2022
          -------------------------------------------------------

  [-O]verwriting output

File Assignments:

 Here is the input file:

heat COMP
 &cntrl
  imin=0,irest=1,ntx=5,
  nstlim=25000,dt=0.002,
  ntc=2,ntf=2,
  cut=8.0, ntb=2, ntp=1, taup=1.0,
  ntpr=500, ntwx=500,
  ntt=3, gamma_ln=2.0,
  temp0=300.0, ig=-1,
 /

--------------------------------------------------------------------------------
   1.  RESOURCE   USE:
--------------------------------------------------------------------------------

 getting box info from netcdf restart file
 NATOM  =  136792 NTYPES =      16 NBONH =  131367 MBONA  =    5581
 NTHETH =   12353 MTHETA =    7595 NPHIH =   25068 MPHIA  =   24108
 NHPARM =       0 NPARM  =       0 NNB   =  228219 NRES   =   42665
 NBONA  =    5581 NTHETA =    7595 NPHIA =   24108 NUMBND =      75
 NUMANG =     174 NPTRA  =     211 NATYP =      37 NPHB   =       0
 IFBOX  =       1 NMXRS  =      24 IFCAP =       0 NEXTRA =       0
 NCOPY  =       0

     BOX TYPE: RECTILINEAR
Note: ig = -1. Setting random seed to   438544 based on wallclock time in microseconds
      and disabling the synchronization of random numbers between tasks
      to improve performance.

--------------------------------------------------------------------------------
   2.  CONTROL  DATA  FOR  THE  RUN
--------------------------------------------------------------------------------

default_name

General flags:
     imin    =       0, nmropt  =       0

Nature and format of input:
     ntx     =       5, irest   =       1, ntrx    =       1

Nature and format of output:
     ntxo    =       2, ntpr    =     500, ntrx    =       1, ntwr    =   25000
     iwrap   =       0, ntwx    =     500, ntwv    =       0, ntwe    =       0
     ioutfm  =       1, ntwprt  =       0, idecomp =       0, rbornstat=      0

Potential function:
     ntf     =       2, ntb     =       2, igb     =       0, nsnb    =      25
     ipol    =       0, gbsa    =       0, iesp    =       0
     dielc   =   1.00000, cut     =   8.00000, intdiel =   1.00000

Frozen or restrained atoms:
     ibelly  =       0, ntr     =       0

Molecular dynamics:
     nstlim  =     25000, nscm    =      1000, nrespa  =         1
     t       =   0.00000, dt      =   0.00200, vlimit  =  20.00000

Langevin dynamics temperature regulation:
     ig      =  438544
     temp0   = 300.00000, tempi   =   0.00000, gamma_ln=   2.00000

Pressure regulation:
     ntp     =       1
     pres0   =   1.00000, comp    =  44.60000, taup    =   1.00000

SHAKE:
     ntc     =       2, jfastw  =       0
     tol     =   0.00001

Ewald parameters:
     verbose =       0, ew_type =       0, nbflag  =       1, use_pme =       1
     vdwmeth =       1, eedmeth =       1, netfrc  =       1
     Box X =  114.904   Box Y =  135.763   Box Z =  102.913
     Alpha =   90.000   Beta  =   90.000   Gamma =   90.000
     NFFT1 =  120       NFFT2 =  135       NFFT3 =  108
     Cutoff=    8.000   Tol   =0.100E-04
     Ewald Coefficient =  0.34864
     Interpolation order =    4

--------------------------------------------------------------------------------
   3.  ATOMIC COORDINATES AND VELOCITIES
--------------------------------------------------------------------------------

default_name
 begin time read from input coords =    50.000 ps

 Number of triangulated 3-point waters found:    41980

     Sum of charges from parm topology file =  12.99999968
     Assuming uniform neutralizing plasma

--------------------------------------------------------------------------------
   4.  RESULTS
 NSTEP =      500   TIME(PS) =      51.000  TEMP(K) =   299.21  PRESS =  -368.4
 Etot   =   -330554.6394  EKtot   =     82947.9356  EPtot      =   -413502.5750
 BOND   =      2078.3995  ANGLE   =      5627.7974  DIHED      =      3900.2704
 1-4 NB =      2509.6362  1-4 EEL =     28573.9329  VDWAALS    =     53259.8809
 EELEC  =   -510054.4291  EHBOND  =         0.0000  RESTRAINT  =         0.0000
 EKCMT  =     37561.1640  VIRIAL  =     50150.8376  VOLUME     =   1582891.5310
 CMAP   =       601.9369
                                                    Density    =         0.8741
 Ewald error estimate:   0.3806E-04
 ------------------------------------------------------------------------------

      A V E R A G E S   O V E R   25000 S T E P S

 NSTEP =    25000   TIME(PS) =     100.000  TEMP(K) =   299.94  PRESS =   -68.8
 Etot   =   -334820.3241  EKtot   =     83150.7669  EPtot      =   -417971.0910
 BOND   =      2082.1737  ANGLE   =      5655.1944  DIHED      =      3863.2102
 1-4 NB =      2486.2055  1-4 EEL =     28504.9857  VDWAALS    =     53099.0435
 EELEC  =   -514253.0632  EHBOND  =         0.0000  RESTRAINT  =         0.0000
 EKCMT  =     37642.6847  VIRIAL  =     39853.8881  VOLUME     =   1424338.7154
 CMAP   =       591.1591
                                                    Density    =         0.9730
 Ewald error estimate:   0.4548E-04
 ------------------------------------------------------------------------------

      R M S  F L U C T U A T I O N S

 NSTEP =    25000   TIME(PS) =     100.000  TEMP(K) =     0.86  PRESS =   103.1
 Etot   =      2056.5944  EKtot   =       238.2382  EPtot      =      2096.0244
 BOND   =        38.1669  ANGLE   =        56.3472  DIHED      =        31.2818
 1-4 NB =        21.0314  1-4 EEL =        56.6476  VDWAALS    =       302.2774
 EELEC  =      2161.1342  EHBOND  =         0.0000  RESTRAINT  =         0.0000
 EKCMT  =       149.2161  VIRIAL  =      3297.1157  VOLUME     =     59795.9211
 CMAP   =        11.8181
                                                    Density    =         0.0388
 Ewald error estimate:   0.2676E-04
 ------------------------------------------------------------------------------
