-------------------------------------------------------
          Amber 22 SANDER                              2022
          -------------------------------------------------------

  [-O]verwriting output

File Assignments:

 Here is the input file:

heat COMP
&cntrl
  imin=0,irest=1,ntx=5,
  nstlim=250000,dt=0.002,
  ntc=2,ntf=2,
  cut=8.0, ntb=2, ntp=1, taup=1.0,
  ntpr=500, ntwx=500,
  ntt=3, gamma_ln=2.0,
  temp0=300.0, ig=-1,
 /

--------------------------------------------------------------------------------
   1.  RESOURCE   USE:
--------------------------------------------------------------------------------

 getting box info from netcdf restart file
 NATOM  =  136792 NTYPES =      16 NBONH =  131367 MBONA  =    5581
 NTHETH =   12353 MTHETA =    7595 NPHIH =   25068 MPHIA  =   24108
 NHPARM =       0 NPARM  =       0 NNB   =  228219 NRES   =   42665
 NBONA  =    5581 NTHETA =    7595 NPHIA =   24108 NUMBND =      75
 NUMANG =     174 NPTRA  =     211 NATYP =      37 NPHB   =       0
 IFBOX  =       1 NMXRS  =      24 IFCAP =       0 NEXTRA =       0
 NCOPY  =       0

     BOX TYPE: RECTILINEAR
Note: ig = -1. Setting random seed to   629830 based on wallclock time in microseconds
      and disabling the synchronization of random numbers between tasks
      to improve performance.

--------------------------------------------------------------------------------
   2.  CONTROL  DATA  FOR  THE  RUN
--------------------------------------------------------------------------------

default_name

General flags:
     imin    =       0, nmropt  =       0

Nature and format of input:
     ntx     =       5, irest   =       1, ntrx    =       1

Nature and format of output:
     ntxo    =       2, ntpr    =     500, ntrx    =       1, ntwr    =  250000
     iwrap   =       0, ntwx    =     500, ntwv    =       0, ntwe    =       0
     ioutfm  =       1, ntwprt  =       0, idecomp =       0, rbornstat=      0

Potential function:
     ntf     =       2, ntb     =       2, igb     =       0, nsnb    =      25
     ipol    =       0, gbsa    =       0, iesp    =       0
     dielc   =   1.00000, cut     =   8.00000, intdiel =   1.00000

Frozen or restrained atoms:
     ibelly  =       0, ntr     =       0

Molecular dynamics:
     nstlim  =    250000, nscm    =      1000, nrespa  =         1
     t       =   0.00000, dt      =   0.00200, vlimit  =  20.00000

Langevin dynamics temperature regulation:
     ig      =  629830
     temp0   = 300.00000, tempi   =   0.00000, gamma_ln=   2.00000

Pressure regulation:
     ntp     =       1
     pres0   =   1.00000, comp    =  44.60000, taup    =   1.00000

SHAKE:
     ntc     =       2, jfastw  =       0
     tol     =   0.00001

Ewald parameters:
     verbose =       0, ew_type =       0, nbflag  =       1, use_pme =       1
     vdwmeth =       1, eedmeth =       1, netfrc  =       1
     Box X =  109.090   Box Y =  128.894   Box Z =   97.706
     Alpha =   90.000   Beta  =   90.000   Gamma =   90.000
     NFFT1 =  120       NFFT2 =  128       NFFT3 =  100
     Cutoff=    8.000   Tol   =0.100E-04
     Ewald Coefficient =  0.34864
     Interpolation order =    4

--------------------------------------------------------------------------------
   3.  ATOMIC COORDINATES AND VELOCITIES
--------------------------------------------------------------------------------

default_name
 begin time read from input coords =   100.000 ps

 Number of triangulated 3-point waters found:    41980

     Sum of charges from parm topology file =  12.99999968
     Assuming uniform neutralizing plasma

--------------------------------------------------------------------------------
   4.  RESULTS
 NSTEP =      500   TIME(PS) =     101.000  TEMP(K) =   298.15  PRESS =    37.8
 Etot   =   -336809.9413  EKtot   =     82653.5609  EPtot      =   -419463.5022
 BOND   =      2055.8098  ANGLE   =      5576.5975  DIHED      =      3806.4486
 1-4 NB =      2481.0682  1-4 EEL =     28424.4101  VDWAALS    =     53287.8196
 EELEC  =   -515696.6143  EHBOND  =         0.0000  RESTRAINT  =         0.0000
 EKCMT  =     37511.6382  VIRIAL  =     36392.2501  VOLUME     =   1372592.7889
 CMAP   =       600.9583
                                                    Density    =         1.0080
 Ewald error estimate:   0.2909E-04
 ------------------------------------------------------------------------------

      A V E R A G E S   O V E R  250000 S T E P S

 NSTEP =   250000   TIME(PS) =     600.000  TEMP(K) =   300.03  PRESS =     0.9
 Etot   =   -336944.2653  EKtot   =     83175.4333  EPtot      =   -420119.6986
 BOND   =      2081.6753  ANGLE   =      5644.6216  DIHED      =      3809.6606
 1-4 NB =      2464.1464  1-4 EEL =     28465.4153  VDWAALS    =     53171.1458
 EELEC  =   -516338.0731  EHBOND  =         0.0000  RESTRAINT  =         0.0000
 EKCMT  =     37663.2410  VIRIAL  =     37636.3502  VOLUME     =   1372365.4529
 CMAP   =       581.7094
                                                    Density    =         1.0081
 Ewald error estimate:   0.4161E-04
 ------------------------------------------------------------------------------

      R M S  F L U C T U A T I O N S

 NSTEP =   250000   TIME(PS) =     600.000  TEMP(K) =     0.80  PRESS =    73.0
 Etot   =       410.7724  EKtot   =       220.5776  EPtot      =       336.0872
 BOND   =        38.4246  ANGLE   =        57.0439  DIHED      =        31.6457
 1-4 NB =        20.8967  1-4 EEL =        57.5459  VDWAALS    =       288.0538
 EELEC  =       484.5848  EHBOND  =         0.0000  RESTRAINT  =         0.0000
 EKCMT  =       148.6993  VIRIAL  =      2165.3614  VOLUME     =      1139.0730
 CMAP   =        13.1192
                                                    Density    =         0.0008
 Ewald error estimate:   0.2573E-04
 ------------------------------------------------------------------------------
